/*--------------------------------*- C++ -*----------------------------------*\
  =========                 |
  \\      /  F ield         | OpenFOAM: The Open Source CFD Toolbox
   \\    /   O peration     | Website:  https://openfoam.org
    \\  /    A nd           | Version:  9
     \\/     M anipulation  |
\*---------------------------------------------------------------------------*/
FoamFile
{
    format      ascii;
    class       polyBoundaryMesh;
    location    "5e-08/polyMesh";
    object      boundary;
}
// * * * * * * * * * * * * * * * * * * * * * * * * * * * * * * * * * * * * * //

4
(
    Left
    {
        type            patch;
        nFaces          150;
        startFace       375946;
    }
    Right
    {
        type            patch;
        nFaces          150;
        startFace       376096;
    }
    TopBottom
    {
        type            patch;
        nFaces          2054;
        startFace       376246;
    }
    empty
    {
        type            empty;
        inGroups        List<word> 1(empty);
        nFaces          374226;
        startFace       378300;
    }
)

// ************************************************************************* //
